# generated using pymatgen
data_Na2Ti2Si2O9
_symmetry_space_group_name_H-M   Pbcn
_cell_length_a   8.79768900
_cell_length_b   5.28700700
_cell_length_c   14.73470800
_cell_angle_alpha   90.00000000
_cell_angle_beta   90.00000000
_cell_angle_gamma   90.00000000
_symmetry_Int_Tables_number   60
_chemical_formula_structural   Na2Ti2Si2O9
_chemical_formula_sum   'Na8 Ti8 Si8 O36'
_cell_volume   685.36200550
_cell_formula_units_Z   4
loop_
 _symmetry_equiv_pos_site_id
 _symmetry_equiv_pos_as_xyz
  1  'x, y, z'
  2  '-x, -y, -z'
  3  '-x+1/2, -y+1/2, z+1/2'
  4  'x+1/2, y+1/2, -z+1/2'
  5  'x+1/2, -y+1/2, -z'
  6  '-x+1/2, y+1/2, z'
  7  '-x, y, -z+1/2'
  8  'x, -y, z+1/2'
loop_
 _atom_type_symbol
 _atom_type_oxidation_number
  Na+  1.0
  Ti4+  4.0
  Si4+  4.0
  O2-  -2.0
loop_
 _atom_site_type_symbol
 _atom_site_label
 _atom_site_symmetry_multiplicity
 _atom_site_fract_x
 _atom_site_fract_y
 _atom_site_fract_z
 _atom_site_occupancy
  Na+  Na0  8  0.06331300  0.35940500  0.34565700  1
  Ti4+  Ti1  8  0.15035400  0.13019200  0.66891300  1
  Si4+  Si2  8  0.15802500  0.19980300  0.97348200  1
  O2-  O3  8  0.00619000  0.24059500  0.57392600  1
  O2-  O4  8  0.16519400  0.20105500  0.08392200  1
  O2-  O5  8  0.18328500  0.44052300  0.72200800  1
  O2-  O6  8  0.23500800  0.06440700  0.43310800  1
  O2-  O7  4  0.00000000  0.00807500  0.75000000  1
