# generated using pymatgen
data_Cr2S3Br2
_symmetry_space_group_name_H-M   Pmm2
_cell_length_a   3.50720000
_cell_length_b   4.74920000
_cell_length_c   7.93620000
_cell_angle_alpha   90.00000000
_cell_angle_beta   90.00000000
_cell_angle_gamma   90.00000000
_symmetry_Int_Tables_number   25
_chemical_formula_structural   Cr2S3Br2
_chemical_formula_sum   'Cr2 S3 Br2'
_cell_volume   132.18847597
_cell_formula_units_Z   1
loop_
 _symmetry_equiv_pos_site_id
 _symmetry_equiv_pos_as_xyz
  1  'x, y, z'
  2  '-x, -y, z'
  3  '-x, y, z'
  4  'x, -y, z'
loop_
 _atom_site_type_symbol
 _atom_site_label
 _atom_site_symmetry_multiplicity
 _atom_site_fract_x
 _atom_site_fract_y
 _atom_site_fract_z
 _atom_site_occupancy
  Cr  Cr0  1  0.00000000  0.00000000  0.12510000  1.0
  Cr  Cr1  1  0.50000000  0.50000000  0.62510000  1.0
  S  S2  1  0.00000000  0.50000000  0.07640000  1.0
  S  S3  1  0.00000000  0.50000000  0.42360000  1.0
  S  S4  1  0.50000000  0.00000000  0.57640000  1.0
  Br  Br5  1  0.00000000  0.50000000  0.85110000  1.0
  Br  Br6  1  0.50000000  0.00000000  0.35110000  1.0
