# generated using pymatgen
data_HC255O512
_symmetry_space_group_name_H-M   R-3
_cell_length_a   31.09614234
_cell_length_b   31.09614234
_cell_length_c   38.08484086
_cell_angle_alpha   90.00000000
_cell_angle_beta   90.00000000
_cell_angle_gamma   120.00000000
_symmetry_Int_Tables_number   148
_chemical_formula_structural   HC255O512
_chemical_formula_sum   'H3 C765 O1536'
_cell_volume   31893.03196201
_cell_formula_units_Z   3
loop_
 _symmetry_equiv_pos_site_id
 _symmetry_equiv_pos_as_xyz
  1  'x, y, z'
  2  'x, y, z'
  3  '-x, -y, -z'
  4  '-x, -y, -z'
  5  '-y, x-y, z'
  6  '-y, x-y, z'
  7  'y, -x+y, -z'
  8  'y, -x+y, -z'
  9  '-x+y, -x, z'
  10  '-x+y, -x, z'
  11  'x-y, x, -z'
  12  'x-y, x, -z'
  13  'x+1/3, y+2/3, z+2/3'
  14  'x+1/3, y+2/3, z+2/3'
  15  '-x+1/3, -y+2/3, -z+2/3'
  16  '-x+1/3, -y+2/3, -z+2/3'
  17  '-y+1/3, x-y+2/3, z+2/3'
  18  '-y+1/3, x-y+2/3, z+2/3'
  19  'y+1/3, -x+y+2/3, -z+2/3'
  20  'y+1/3, -x+y+2/3, -z+2/3'
  21  '-x+y+1/3, -x+2/3, z+2/3'
  22  '-x+y+1/3, -x+2/3, z+2/3'
  23  'x-y+1/3, x+2/3, -z+2/3'
  24  'x-y+1/3, x+2/3, -z+2/3'
  25  'x+2/3, y+1/3, z+1/3'
  26  'x+2/3, y+1/3, z+1/3'
  27  '-x+2/3, -y+1/3, -z+1/3'
  28  '-x+2/3, -y+1/3, -z+1/3'
  29  '-y+2/3, x-y+1/3, z+1/3'
  30  '-y+2/3, x-y+1/3, z+1/3'
  31  'y+2/3, -x+y+1/3, -z+1/3'
  32  'y+2/3, -x+y+1/3, -z+1/3'
  33  '-x+y+2/3, -x+1/3, z+1/3'
  34  '-x+y+2/3, -x+1/3, z+1/3'
  35  'x-y+2/3, x+1/3, -z+1/3'
  36  'x-y+2/3, x+1/3, -z+1/3'
loop_
 _atom_site_type_symbol
 _atom_site_label
 _atom_site_symmetry_multiplicity
 _atom_site_fract_x
 _atom_site_fract_y
 _atom_site_fract_z
 _atom_site_occupancy
  H_imp  H0  3  0.00000000  0.00000000  0.00000000  1
  C4+  C1  18  -0.00000000  0.12500000  0.50000000  1.0
  C4+  C2  18  0.00000000  0.12500000  -0.00000000  1.0
  C4+  C3  18  0.00000000  0.12500000  0.25000000  1.0
  C4+  C4  18  0.00000000  0.25000000  0.00000000  1.0
  C4+  C5  18  0.00000000  0.25000000  0.25000000  1.0
  C4+  C6  18  0.00000000  0.25000000  0.50000000  1.0
  C4+  C7  18  0.00000000  0.37500000  -0.00000000  1.0
  C4+  C8  18  0.00000000  0.37500000  0.25000000  1.0
  C4+  C9  18  0.00000000  0.37500000  0.50000000  1.0
  C4+  C10  18  0.00000000  0.50000000  0.25000000  1.0
  C4+  C11  18  0.00000000  0.62500000  0.25000000  1.0
  C4+  C12  18  0.00000000  0.75000000  0.25000000  1.0
  C4+  C13  18  0.00000000  0.12500000  0.75000000  1.0
  C4+  C14  18  0.04166667  0.20833333  0.83333333  1.0
  C4+  C15  18  0.04166667  0.45833333  0.08333333  1.0
  C4+  C16  18  0.04166667  0.45833333  0.33333333  1.0
  C4+  C17  18  0.04166667  0.45833333  0.58333333  1.0
  C4+  C18  18  0.04166667  0.45833333  0.83333333  1.0
  C4+  C19  18  0.04166667  0.58333333  0.08333333  1.0
  C4+  C20  18  0.04166667  0.58333333  0.33333333  1.0
  C4+  C21  18  0.04166667  0.58333333  0.83333333  1.0
  C4+  C22  18  0.04166667  0.83333333  0.08333333  1.0
  C4+  C23  18  0.04166667  0.83333333  0.83333333  1.0
  C4+  C24  18  0.04166667  0.08333333  0.08333333  1.0
  C4+  C25  18  0.04166667  0.08333333  0.58333333  1.0
  C4+  C26  18  0.04166667  0.95833333  0.83333333  1.0
  C4+  C27  18  0.04166667  0.95833333  0.33333333  1.0
  C4+  C28  18  0.04166667  0.20833333  0.33333333  1.0
  C4+  C29  18  0.04166667  0.20833333  0.08333333  1.0
  C4+  C30  18  0.04166667  0.20833333  0.58333333  1.0
  C4+  C31  18  0.04166667  0.58333333  0.58333333  1.0
  C4+  C32  18  0.04166667  0.83333333  0.58333333  1.0
  C4+  C33  18  0.04166667  0.83333333  0.33333333  1.0
  C4+  C34  18  0.08333333  0.16666667  0.41666667  1.0
  C4+  C35  18  0.08333333  0.16666667  0.91666667  1.0
  C4+  C36  18  0.08333333  0.16666667  0.16666667  1.0
  C4+  C37  18  0.08333333  0.54166667  0.16666667  1.0
  C4+  C38  18  0.08333333  0.54166667  0.41666667  1.0
  C4+  C39  18  0.08333333  0.54166667  0.66666667  1.0
  C4+  C40  18  0.08333333  0.54166667  0.91666667  1.0
  C4+  C41  18  0.08333333  0.16666667  0.66666667  1.0
  C4+  C42  9  0.00000000  0.50000000  0.00000000  1.0
  C4+  C43  9  0.00000000  0.50000000  0.50000000  1.0
  C4+  C44  6  0.00000000  0.00000000  0.25000000  1.0
  C4+  C45  3  0.00000000  0.00000000  0.50000000  1.0
  O2-  O46  18  -0.00000000  0.25000000  0.53063425  1.0
  O2-  O47  18  -0.00000000  0.25000000  0.46936575  1.0
  O2-  O48  18  -0.00000000  0.25000000  0.71936575  1.0
  O2-  O49  18  0.00000000  0.25000000  0.03063424  1.0
  O2-  O50  18  0.00000000  0.25000000  0.21936575  1.0
  O2-  O51  18  0.00000000  0.25000000  0.28063425  1.0
  O2-  O52  18  0.00000000  0.25000000  0.78063425  1.0
  O2-  O53  18  0.00000000  0.25000000  0.96936575  1.0
  O2-  O54  18  0.00000000  0.50000000  0.03063424  1.0
  O2-  O55  18  0.00000000  0.50000000  0.28063424  1.0
  O2-  O56  18  0.00000000  0.50000000  0.46936576  1.0
  O2-  O57  18  0.00000000  0.50000000  0.78063425  1.0
  O2-  O58  18  0.00082101  0.06291050  0.09354475  1.0
  O2-  O59  18  0.00082101  0.31291050  0.84354475  1.0
  O2-  O60  18  0.00082101  0.31291050  0.34354475  1.0
  O2-  O61  18  0.00082101  0.31291050  0.09354475  1.0
  O2-  O62  18  0.00082101  0.56291050  0.59354475  1.0
  O2-  O63  18  0.00082101  0.56291050  0.09354475  1.0
  O2-  O64  18  0.00082101  0.56291050  0.34354475  1.0
  O2-  O65  18  0.00082101  0.56291050  0.84354475  1.0
  O2-  O66  18  0.00082101  0.81291050  0.84354475  1.0
  O2-  O67  18  0.00082101  0.81291050  0.09354475  1.0
  O2-  O68  18  0.00082101  0.81291050  0.34354475  1.0
  O2-  O69  18  0.00082101  0.06291050  0.34354475  1.0
  O2-  O70  18  0.00082101  0.06291050  0.59354475  1.0
  O2-  O71  18  0.00082101  0.31291050  0.59354475  1.0
  O2-  O72  18  0.00082101  0.81291050  0.59354475  1.0
  O2-  O73  18  0.00082101  0.06291050  0.84354475  1.0
  O2-  O74  18  0.02042283  0.60457717  0.26021141  1.0
  O2-  O75  18  0.02042283  0.60457717  0.51021141  1.0
  O2-  O76  18  0.02042283  0.85457717  0.26021141  1.0
  O2-  O77  18  0.02042283  0.85457717  0.76021141  1.0
  O2-  O78  18  0.02042283  0.10457717  0.76021141  1.0
  O2-  O79  18  0.02042283  0.10457717  0.51021142  1.0
  O2-  O80  18  0.02042283  0.10457717  0.26021141  1.0
  O2-  O81  18  0.02042283  0.85457717  0.51021141  1.0
  O2-  O82  18  0.02042283  0.10457717  0.01021142  1.0
  O2-  O83  18  0.02042283  0.60457717  0.01021142  1.0
  O2-  O84  18  0.02042283  0.60457717  0.76021141  1.0
  O2-  O85  18  0.02042283  0.85457717  0.01021142  1.0
  O2-  O86  18  0.02124384  0.16748767  0.07312192  1.0
  O2-  O87  18  0.02124384  0.41748767  0.07312192  1.0
  O2-  O88  18  0.02124384  0.16748767  0.57312192  1.0
  O2-  O89  18  0.02124384  0.91748767  0.32312192  1.0
  O2-  O90  18  0.02124384  0.91748767  0.57312192  1.0
  O2-  O91  18  0.02124384  0.91748767  0.82312192  1.0
  O2-  O92  18  0.02124384  0.16748767  0.32312192  1.0
  O2-  O93  18  0.02124384  0.16748767  0.82312192  1.0
  O2-  O94  18  0.02124384  0.41748767  0.82312192  1.0
  O2-  O95  18  0.02124384  0.41748767  0.32312192  1.0
  O2-  O96  18  0.02124384  0.91748767  0.07312192  1.0
  O2-  O97  18  0.02124384  0.41748767  0.57312192  1.0
  O2-  O98  18  0.06208950  0.24917899  0.09354475  1.0
  O2-  O99  18  0.06208950  0.24917899  0.84354475  1.0
  O2-  O100  18  0.06208950  0.49917899  0.34354475  1.0
  O2-  O101  18  0.06208950  0.49917899  0.59354475  1.0
  O2-  O102  18  0.06208950  0.49917899  0.09354475  1.0
  O2-  O103  18  0.06208950  0.24917899  0.34354475  1.0
  O2-  O104  18  0.06208950  0.24917899  0.59354475  1.0
  O2-  O105  18  0.06208950  0.49917899  0.84354475  1.0
  O2-  O106  18  0.06291050  0.56208950  0.15645525  1.0
  O2-  O107  18  0.06291050  0.56208950  0.40645525  1.0
  O2-  O108  18  0.06291050  0.81208950  0.65645525  1.0
  O2-  O109  18  0.06291050  0.56208950  0.65645525  1.0
  O2-  O110  18  0.06291050  0.56208950  0.90645525  1.0
  O2-  O111  18  0.06291050  0.81208950  0.90645525  1.0
  O2-  O112  18  0.06291050  0.81208950  0.15645525  1.0
  O2-  O113  18  0.06291050  0.81208950  0.40645525  1.0
  O2-  O114  18  0.08251233  0.85375616  0.07312192  1.0
  O2-  O115  18  0.08251233  0.85375616  0.32312192  1.0
  O2-  O116  18  0.08251233  0.85375616  0.57312192  1.0
  O2-  O117  18  0.08251233  0.85375616  0.82312192  1.0
  O2-  O118  18  0.08333333  0.16666667  0.94730091  1.0
  O2-  O119  18  0.08333333  0.16666667  0.69730091  1.0
  O2-  O120  18  0.08333333  0.16666667  0.38603242  1.0
  O2-  O121  18  0.08333333  0.16666667  0.44730091  1.0
  O2-  O122  18  0.08333333  0.91666667  0.13603242  1.0
  O2-  O123  18  0.08333333  0.16666667  0.19730091  1.0
  O2-  O124  18  0.08333333  0.16666667  0.63603242  1.0
  O2-  O125  18  0.08333333  0.16666667  0.88603242  1.0
  O2-  O126  18  0.08415434  0.22957717  0.01021142  1.0
  O2-  O127  18  0.08415434  0.22957717  0.26021142  1.0
  O2-  O128  18  0.08415434  0.22957717  0.51021141  1.0
  O2-  O129  18  0.08415434  0.22957717  0.76021141  1.0
  O2-  O130  6  0.00000000  0.00000000  0.03063425  1.0
  O2-  O131  6  0.00000000  0.00000000  0.21936575  1.0
  O2-  O132  6  0.00000000  0.00000000  0.28063425  1.0
  O2-  O133  6  0.00000000  0.00000000  0.46936575  1.0
