# generated using pymatgen
data_HC31O64
_symmetry_space_group_name_H-M   R-3
_cell_length_a   15.54807117
_cell_length_b   15.54807117
_cell_length_c   19.04242043
_cell_angle_alpha   90.00000000
_cell_angle_beta   90.00000000
_cell_angle_gamma   120.00000000
_symmetry_Int_Tables_number   148
_chemical_formula_structural   HC31O64
_chemical_formula_sum   'H3 C93 O192'
_cell_volume   3986.62899525
_cell_formula_units_Z   3
loop_
 _symmetry_equiv_pos_site_id
 _symmetry_equiv_pos_as_xyz
  1  'x, y, z'
  2  'x, y, z'
  3  '-x, -y, -z'
  4  '-x, -y, -z'
  5  '-y, x-y, z'
  6  '-y, x-y, z'
  7  'y, -x+y, -z'
  8  'y, -x+y, -z'
  9  '-x+y, -x, z'
  10  '-x+y, -x, z'
  11  'x-y, x, -z'
  12  'x-y, x, -z'
  13  'x+1/3, y+2/3, z+2/3'
  14  'x+1/3, y+2/3, z+2/3'
  15  '-x+1/3, -y+2/3, -z+2/3'
  16  '-x+1/3, -y+2/3, -z+2/3'
  17  '-y+1/3, x-y+2/3, z+2/3'
  18  '-y+1/3, x-y+2/3, z+2/3'
  19  'y+1/3, -x+y+2/3, -z+2/3'
  20  'y+1/3, -x+y+2/3, -z+2/3'
  21  '-x+y+1/3, -x+2/3, z+2/3'
  22  '-x+y+1/3, -x+2/3, z+2/3'
  23  'x-y+1/3, x+2/3, -z+2/3'
  24  'x-y+1/3, x+2/3, -z+2/3'
  25  'x+2/3, y+1/3, z+1/3'
  26  'x+2/3, y+1/3, z+1/3'
  27  '-x+2/3, -y+1/3, -z+1/3'
  28  '-x+2/3, -y+1/3, -z+1/3'
  29  '-y+2/3, x-y+1/3, z+1/3'
  30  '-y+2/3, x-y+1/3, z+1/3'
  31  'y+2/3, -x+y+1/3, -z+1/3'
  32  'y+2/3, -x+y+1/3, -z+1/3'
  33  '-x+y+2/3, -x+1/3, z+1/3'
  34  '-x+y+2/3, -x+1/3, z+1/3'
  35  'x-y+2/3, x+1/3, -z+1/3'
  36  'x-y+2/3, x+1/3, -z+1/3'
loop_
 _atom_site_type_symbol
 _atom_site_label
 _atom_site_symmetry_multiplicity
 _atom_site_fract_x
 _atom_site_fract_y
 _atom_site_fract_z
 _atom_site_occupancy
  C  C_imp  3  0.00000000  0.00000000  0.00000000  1
  C4+  C1  18  0.00000000  0.25000000  -0.00000000  1.0
  C4+  C2  18  0.00000000  0.25000000  0.50000000  1.0
  C4+  C3  18  0.08333333  0.91666667  0.66666667  1.0
  C4+  C4  18  0.08333333  0.91666667  0.16666667  1.0
  C4+  C5  9  0.00000000  0.50000000  0.00000000  1.0
  C4+  C6  9  0.00000000  0.50000000  0.50000000  1.0
  C4+  C7  3  0.00000000  0.00000000  0.50000000  1.0
  O2-  O8  18  0.00000000  0.50000000  0.06126849  1.0
  O2-  O9  18  0.00000000  0.50000000  0.43873151  1.0
  O2-  O10  18  0.00164201  0.12582101  0.18708950  1.0
  O2-  O11  18  0.00164201  0.62582101  0.18708950  1.0
  O2-  O12  18  0.00164201  0.62582101  0.68708950  1.0
  O2-  O13  18  0.00164201  0.12582101  0.68708950  1.0
  O2-  O14  18  0.04084566  0.20915434  0.52042283  1.0
  O2-  O15  18  0.04084566  0.20915434  0.02042283  1.0
  O2-  O16  18  0.04248767  0.83497535  0.14624384  1.0
  O2-  O17  18  0.04248767  0.83497535  0.64624384  1.0
  O2-  O18  6  0.00000000  0.00000000  0.06126849  1.0
  O2-  O19  6  0.00000000  0.00000000  0.43873151  1.0
