# generated using pymatgen
data_CO2
_symmetry_space_group_name_H-M   P1
_cell_length_a   5.49707328
_cell_length_b   5.49707328
_cell_length_c   5.49707328
_cell_angle_alpha   90.00000000
_cell_angle_beta   90.00000000
_cell_angle_gamma   90.00000000
_symmetry_Int_Tables_number   1
_chemical_formula_structural   CO2

loop_
 _atom_site_type_symbol
 _atom_site_label
 _atom_site_symmetry_multiplicity
 _atom_site_fract_x
 _atom_site_fract_y
 _atom_site_fract_z
 _atom_site_occupancy
  C4+  C0  4  0.00000000  0.00000000  0.00000000  1
  O2-  O1  8  0.12253698  0.12253698  0.12253698  1
